LAMMPS (2 Aug 2023)
Processor partition = 1

units metal

atom_style atomic

atom_modify map array sort 0 0.0

read_data ../Neb_Dump/Bulk/Tet_Tet/tet_0.data
Reading data file ...
  orthogonal box = (-1.0380103e-06 -1.0380103e-06 -1.0380103e-06) to (22.009548 22.009548 22.009548)
  reading atoms ...
  687 atoms
  reading velocities ...
  687 velocities

mass 1 183.84

mass 2 1.00784

mass 3 4.002602

pair_style eam/alloy

pair_coeff * * Potentials/WHHe_test.eam.alloy W H He

thermo 10

run 0
Step          Temp          E_pair         E_mol          TotEng         Press
0   0             -6132.7652      0             -6132.7652      2539.8515
Loop time of 3.75e-07 on 1 procs for 0 steps with 687 atoms

fix 1 all neb 1

timestep 1e-3

min_style quickmin

thermo 100

variable i equal part

neb 10e-15 10e-18 50000 50000 1000 final ../Neb_Dump/Bulk/Tet_Tet/tet_1.atom
Step          Temp          E_pair         E_mol          TotEng         Press
0   0             -6132.5578      0             -6132.5578      2684.0825
Averages over the last 22 of 43 rows, steps 2100 to 4127:
Temp E_pair E_mol TotEng Press
1.15533e-08 -6132.72 0 -6132.72 2565.4
Loop time of 3.80814 on 1 procs for 4127 steps with 687 atoms

Minimization stats:
  Stopping criterion = energy tolerance
  Energy initial, next-to-last, final =
  Force two-norm initial, final = 2.921644 8.5937283e-06
  Force max component initial, final = 1.2459396 1.4070738e-06
  Final line search alpha, max atom move = 0 0
  Iterations, force evaluations = 4127 4127

Step          Temp          E_pair         E_mol          TotEng         Press
4127   0             -6132.7194      0             -6132.7194      2565.409
Loop time of 0.404735 on 1 procs for 434 steps with 687 atoms

Minimization stats:
  Stopping criterion = energy tolerance
  Energy initial, next-to-last, final =
  Force two-norm initial, final = 8.5937283e-06 3.9632614e-06
  Force max component initial, final = 1.4070738e-06 6.6511983e-07
  Final line search alpha, max atom move = 0 0
  Iterations, force evaluations = 434 434

write_dump all custom ../Neb_Dump/Bulk/Tet_Tet/Neb_Images/neb.$i.atom id type x y z
write_dump all custom ../Neb_Dump/Bulk/Tet_Tet/Neb_Images/neb.1.atom id type x y z
