LAMMPS (2 Aug 2023)
units metal
atom_style atomic
atom_modify map array sort 0 0.0
boundary p p p
lattice bcc 3.144221296574379 orient x 1 1 1 orient y -1 2 -1 orient z -1 0 1
Lattice spacing in x,y,z = 5.445951 5.1344919 4.4466004
region r_simbox block -1e-9 10.0000000001 -1e-9 10.0000000001 -5.0000000001 15.0000000001 units lattice
region r_atombox block -1e-4 10.0001 -1e-4 10.0001 -1e-4 10.0001 units lattice
create_box 3 r_simbox
Created orthogonal box = (-5.445951e-09 -5.1344919e-09 -22.233002) to (54.45951 51.344919 66.699006)
create_atoms 1 region r_atombox
Created 8400 atoms
mass 1 183.84
mass 2 1.00784
mass 3 4.002602
pair_style eam/alloy
pair_coeff * * Potentials/WHHe_test.eam.alloy W H He
fix 3 all box/relax aniso 0.0
run 0
Step          Temp          E_pair         E_mol          TotEng         Press          Volume
0   0             -73717.038      0             -73717.038     -10701.109      248673.38
Loop time of 1.67363e-05 on 6 procs for 0 steps with 8400 atoms

thermo 5
thermo_style custom step temp pe pxx pyy pzz pxy pxz pyz vol
minimize 1e-9 1e-12 100 1000
 (src/min.cpp:225)
Step          Temp          PotEng          Pxx            Pyy            Pzz            Pxy            Pxz            Pyz           Volume
0   0             -73717.038     -15943.735     -13210.682     -2948.9116      1425.7291     -7.8019751e-11  1.1078644e-11  248673.38
Loop time of 0.124484 on 6 procs for 100 steps with 8400 atoms

Minimization stats:
  Stopping criterion = max iterations
  Energy initial, next-to-last, final =
  Force two-norm initial, final = 3246.4801 96.108287
  Force max component initial, final = 2474.6228 55.069661
  Final line search alpha, max atom move = 5.9017537e-06 0.00032500758
  Iterations, force evaluations = 100 100

minimize 1e-12 1e-15 100 1000
 (src/min.cpp:225)
Step          Temp          PotEng          Pxx            Pyy            Pzz            Pxy            Pxz            Pyz           Volume
100   0             -73730.926     -355.32453     -348.67714     -242.51733      1300.4971      5.6165218e-11 -8.4316939e-12  247079.56
Loop time of 0.123152 on 6 procs for 100 steps with 8400 atoms

Minimization stats:
  Stopping criterion = max iterations
  Energy initial, next-to-last, final =
  Force two-norm initial, final = 95.874822 64.294208
  Force max component initial, final = 54.796353 38.534987
  Final line search alpha, max atom move = 5.3232113e-06 0.00020512988
  Iterations, force evaluations = 100 102

minimize 1e-13 1e-16 100000 100000
 (src/min.cpp:225)
Step          Temp          PotEng          Pxx            Pyy            Pzz            Pxy            Pxz            Pyz           Volume
200   0             -73734.93      -3.9448555     -198.18677     -249.91519      1298.837       3.7851711e-11 -2.1056886e-11  247071.48
Averages over the last 5042 of 10084 rows, steps 25410 to 50613:
Temp PotEng Pxx Pyy Pzz Pxy Pxz Pyz Volume
0 -73941.4 0.124546 -0.00634344 -0.142371 12646 1.19794e-10 9.74313e-11 247438
Loop time of 113.745 on 6 procs for 50413 steps with 8400 atoms

Minimization stats:
  Stopping criterion = energy tolerance
  Energy initial, next-to-last, final =
  Force two-norm initial, final = 64.296251 0.07140432
  Force max component initial, final = 38.539396 0.050183525
  Final line search alpha, max atom move = 0.0058311535 0.00029262784
  Iterations, force evaluations = 50413 94877

write_data Lammps_Dump/perfect.data
System init for write_data ...
