LAMMPS (2 Aug 2023)
Processor partition = 0

units metal

atom_style atomic

atom_modify map array sort 0 0.0

read_data ../Neb_Dump/Bulk/Tet_Tet/tet_0.data
Reading data file ...
  orthogonal box = (-1.0380103e-06 -1.0380103e-06 -1.0380103e-06) to (22.009548 22.009548 22.009548)
  reading atoms ...
  687 atoms
  reading velocities ...
  687 velocities

mass 1 183.84

mass 2 1.00784

mass 3 4.002602

pair_style eam/alloy

pair_coeff * * Potentials/WHHe_test.eam.alloy W H He

thermo 10

run 0
Step          Temp          E_pair         E_mol          TotEng         Press
0   0             -6132.7652      0             -6132.7652      2539.8515
Loop time of 3.75e-07 on 1 procs for 0 steps with 687 atoms

fix 1 all neb 1

timestep 1e-3

min_style quickmin

thermo 100

variable i equal part

neb 10e-15 10e-18 50000 50000 1000 final ../Neb_Dump/Bulk/Tet_Tet/tet_1.atom
Step          Temp          E_pair         E_mol          TotEng         Press
0   0             -6132.7652      0             -6132.7652      2539.8515
Averages over the last 22 of 43 rows, steps 2100 to 4127:
Temp E_pair E_mol TotEng Press
6.12913e-15 -6132.77 0 -6132.77 2539.87
Loop time of 3.80818 on 1 procs for 4127 steps with 687 atoms

Minimization stats:
  Stopping criterion = energy tolerance
  Energy initial, next-to-last, final =
  Force two-norm initial, final = 0.0022889983 4.5422913e-10
  Force max component initial, final = 0.0015508761 3.4776854e-11
  Final line search alpha, max atom move = 0 0
  Iterations, force evaluations = 4127 4127

Step          Temp          E_pair         E_mol          TotEng         Press
4127   0             -6132.7652      0             -6132.7652      2539.8706
Loop time of 0.404745 on 1 procs for 434 steps with 687 atoms

Minimization stats:
  Stopping criterion = energy tolerance
  Energy initial, next-to-last, final =
  Force two-norm initial, final = 4.5422919e-10 1.1849395e-10
  Force max component initial, final = 3.4776612e-11 9.1014812e-12
  Final line search alpha, max atom move = 0 0
  Iterations, force evaluations = 434 434

write_dump all custom ../Neb_Dump/Bulk/Tet_Tet/Neb_Images/neb.$i.atom id type x y z
write_dump all custom ../Neb_Dump/Bulk/Tet_Tet/Neb_Images/neb.0.atom id type x y z
